
[General]

# =============================================
# Always include the main Castalia.ini file
# =============================================
include ../Parameters/Castalia.ini
#debug-on-errors=true

#7041
#==========================================================================
#						Tempo de Simulação
#==========================================================================
#sim-time-limit = 625s
#sim-time-limit = 100s  
sim-time-limit = 450s  # É o oficial das simulações


#========================================================================== 
#						Área de Simulação
#==========================================================================
SN.field_x = 50	# meters
SN.field_y = 50	# meters


#==========================================================================
#						Coleta de Traces
#==========================================================================
SN.node[*].Communication.MAC.collectTraceInfo = true
SN.node[*].Application.collectTraceInfo = false
SN.node[*].Communication.Radio.collectTraceInfo = false
SN.node[*].MobilityManager.collectTraceInfo = true


#==========================================================================
#						Parâmetros do Radio
#==========================================================================
SN.node[*].Communication.Radio.RadioParametersFile = "../Parameters/Radio/CC2420.txt"
SN.node[*].Communication.Radio.symbolsForRSSI = 16
#SN.node[*].Communication.Radio.TxOutputPower = "-15dBm"
SN.node[*].Communication.Radio.TxOutputPower = "0dBm" # Parâmetro Luan // configura a potencia que o radio entrega seus pacotes
#SN.node[*].Communication.Radio.maxPhyFrameSize=256 #tamanho maximo do pacote na camada de radio
#SN.node[*].communication.radio.collisionModel = 1
#SN.node[*].Communication.MAC.macBufferSize = 1


#==========================================================================
#						Parâmetros da Aplicação
#==========================================================================
SN.node[*].ApplicationName = "ThroughputTest"
SN.node[*].Application.startupDelay = 1  	#wait for 1sec before starting sending packets
SN.node[0].Application.latencyHistogramMax = 600
SN.node[0].Application.latencyHistogramBuckets = 30
SN.node[*].Application.packet_rate = 0.45 # taxa de pacotes entregues por segundo, era 1



#==========================================================================
#						Parâmetros MAC
#==========================================================================
SN.node[*].Communication.MACProtocolName = "StaticGTS802154"
#SN.node[*].Communication.MACProtocolName = "Basic802154"
SN.node[0].Communication.MAC.isFFD = true
SN.node[0].Communication.MAC.isPANCoordinator = true
SN.node[*].Communication.MAC.phyDataRate = 250 # como definido no CC2420
SN.node[*].Communication.MAC.phyBitsPerSymbol = 4 # como definido no CC2420
SN.node[*].Communication.MAC.numSuperframeSlots = 145#145 #com 22 nodos coloco 46 / com 11 nodos coloco 28
#SN.node[*].Communication.MAC.beaconOrder = 6 #com 22 nodos
#SN.node[*].Communication.MAC.frameOrder =  6 #com 22 nodos
#SN.node[*].Communication.MAC.baseSlotDuration = 20

SN.node[*].Communication.MAC.requestGTS = 1 # cada nodo solicita um GTS
SN.node[*].Communication.MAC.gtsOnly = true  # quando a rede é dinamica deixo comentada essa linha

SN.node[*].Communication.MAC.macMaxFrameRetries = 1 # numero de transmissões
SN.node[*].Communication.MAC.tempConfig = 5   #numero de BI para configuracao da Rede
SN.node[*].Communication.MAC.tempAtualizVizinhanca = 7 #5 #  #numero de BI para acordar e escutar a vizinhanca -- se usar três para o adaptativo fica melhor
SN.node[*].Communication.MAC.selecao = 4   #é 4 o default
SN.node[*].Communication.MAC.userelay = true
SN.node[*].Communication.MAC.smart = true # seleção ocorre de forma dinâmica, de acoro com a necessidade
SN.node[*].Communication.MAC.smartPeriodic = false #seleção ocorre de forma periódica
SN.node[*].Communication.MAC.aleatoria = false
SN.node[*].Communication.MAC.oportunista = false
SN.node[*].Communication.MAC.completamenteAleatoria = false
SN.node[*].Communication.MAC.redeDinamica = true



#Parâmetros para selecionar cooperantes#
SN.node[*].Communication.MAC.beta1 = 0.5  #Energia
SN.node[*].Communication.MAC.beta2 = 1.5  #RSSI
SN.node[*].Communication.MAC.beta3 = 1.0  #Vizinhos
SN.node[*].Communication.MAC.beta4 = 1.5  #Historico de Taxa de Sucesso

#==========================================================================
#						Parâmetros da Codificação
#==========================================================================

SN.node[*].Communication.MAC.useNetworkCoding = false
SN.node[*].Communication.MAC.useCoopAux = false #sinaliza se o coordenadore selecionará cooperantes auxiliares para os cooperantes principais
SN.node[*].Communication.MAC.useGACK = true
SN.node[*].Communication.MAC.useThreeRetransPerCoop = false
SN.node[*].Communication.MAC.useRetransIndependent = true

#==========================================================================
#						Parâmetros do Módulo ResourceManager
#==========================================================================
#SN.node[*].ResourceManager.initialEnergy = 18720 #É o valor default em joules, equivale a duas pilhas AA
#SN.node[*].ResourceManager.sigmaCPUClockDrift = 0.00001333 # É para considerar o clock drift do nodo
SN.node[*].ResourceManager.sigmaCPUClockDrift = 0 # É para desconsiderar o clock drift do nodo
SN.node[*].ResourceManager.baselineNodePower = 0


# ============================================================================
#                              Modelo de interferência
# ============================================================================
#SN.wirelessChannel.temporalModelParametersFile = "../Parameters/WirelessChannel/BANmodels/TemporalModel.txt"
SN.wirelessChannel.temporalModelParametersFile = ""

## Removing variability from wireless channel
## transmissores a uma certa distância pega a mesma força de sinal
#SN.wirelessChannel.sigma = 0
## links perfeitamente bidirecionais
#SN.wirelessChannel.bidirectionalSigma = 0
## Módulo de rádio ideal: modelo de disco para o raio
SN.node[*].Communication.Radio.mode = "IDEAL"
#SN.wirelessChannel.pathLossExponent = 1.5
 ## Controlar o raio do disco
#SN.wirelessChannel.PLd0 = (TxPowerUsed_dBm – max(receiverSensitivity, noisefloor+5dBm) ) – 10*pathLossExponent*log(50)
## Para raio de 100 metros, por exemplo, PLd0 = TX + 95 - 48
#SN.wirelessChannel.PLd0 = 48.55  ## Raio de aproximadamente 40 metros
#SN.wirelessChannel.PLd0 = 52  ## Raio de aproximadamente 60 metros
#SN.wirelessChannel.PLd0 = 40  ## Raio de aproximadamente 195 metros


#==========================================================================
#==========================================================================
#Neste cenário o coordenador perde as mensagens do nodo 1 e no nodo 7. São selecionados os cooperantes 2 e 8.
#SN.numNodes = 9
#
#SN.node[0].xCoor = 25
#SN.node[0].yCoor = 25
#SN.node[1].xCoor = 10.4121
#SN.node[1].yCoor = 13.631
#SN.node[2].xCoor = 21.2442 
#SN.node[2].yCoor = 19.0000
#SN.node[3].xCoor = 21.2442
#SN.node[3].yCoor = 5.3626
#SN.node[4].xCoor = 24.0239
#SN.node[4].yCoor = 30.0265
#SN.node[5].xCoor = 27.1782
#SN.node[5].yCoor = 12.2947
#SN.node[6].xCoor = 40.1721
#SN.node[6].yCoor = 13.8833
#SN.node[7].xCoor = 49.40
#SN.node[7].yCoor = 5.6331
#SN.node[8].xCoor = 16.4407
#SN.node[8].yCoor = 25.6422
#
#SN.node[*].startupRandomization = 0
#SN.node[*].startupOffset = 0
#SN.node[*].ResourceManager.initialEnergy = 18720

#==========================================================================

SN.numNodes = 101
###
##SN.node[*].startupRandomization = 0
##SN.node[*].startupOffset = 0
##SN.node[*].ResourceManager.initialEnergy = 18720
###
#
SN.node[*].startupRandomization = 0
SN.node[*].ResourceManager.initialEnergy = 18720
SN.node[0..50].startupOffset = 0
SN.node[51..55].startupOffset = 50
SN.node[56..60].startupOffset = 80
SN.node[61..65].startupOffset = 110
SN.node[66..70].startupOffset = 140
SN.node[71..75].startupOffset = 170
SN.node[76..80].startupOffset = 200
SN.node[81..85].startupOffset = 230
SN.node[86..90].startupOffset = 260
SN.node[91..95].startupOffset = 290
SN.node[96..100].startupOffset = 320

##
##
SN.node[30..33].pausar = true
SN.node[30..33].pausarNoTempo = 320
SN.node[30..33].retornarNoTempo = 370

SN.node[40..43].pausar = true
SN.node[40..43].pausarNoTempo = 330
SN.node[40..43].retornarNoTempo = 480

SN.node[50..53].pausar = true
SN.node[50..53].pausarNoTempo = 340
SN.node[50..53].retornarNoTempo = 390
#
SN.node[60..63].pausar = true
SN.node[60..63].pausarNoTempo = 350
SN.node[60..63].retornarNoTempo = 450
##
SN.node[70..73].pausar = true
SN.node[70..73].pausarNoTempo = 360
SN.node[70..73].retornarNoTempo = 450
###
SN.node[0].xCoor = 25
SN.node[0].yCoor = 25
SN.node[0].zCoor = 0
SN.node[1].xCoor = 8.59293
SN.node[1].yCoor = 31.1212
SN.node[1].zCoor = 0
SN.node[2].xCoor = 14.809
SN.node[2].yCoor = 42.367
SN.node[2].zCoor = 0
SN.node[3].xCoor = 19.8998
SN.node[3].yCoor = 17.0934
SN.node[3].zCoor = 0
SN.node[4].xCoor = 15.9746
SN.node[4].yCoor = 31.452
SN.node[4].zCoor = 0
SN.node[5].xCoor = 7.64287
SN.node[5].yCoor = 38.2696
SN.node[5].zCoor = 0
SN.node[6].xCoor = 34.2504
SN.node[6].yCoor = 19.0883
SN.node[6].zCoor = 0
SN.node[7].xCoor = 13.3584
SN.node[7].yCoor = 47.7494
SN.node[7].zCoor = 0
SN.node[8].xCoor = 2.34359
SN.node[8].yCoor = 14.2171
SN.node[8].zCoor = 0
SN.node[9].xCoor = 46.729
SN.node[9].yCoor = 39.1243
SN.node[9].zCoor = 0
SN.node[10].xCoor = 37.7712
SN.node[10].yCoor = 30.6061
SN.node[10].zCoor = 0
SN.node[11].xCoor = 15.534
SN.node[11].yCoor = 39.5162
SN.node[11].zCoor = 0
SN.node[12].xCoor = 37.3137
SN.node[12].yCoor = 25.6184
SN.node[12].zCoor = 0
SN.node[13].xCoor = 46.5178
SN.node[13].yCoor = 35.0641
SN.node[13].zCoor = 0
SN.node[14].xCoor = 15.3833
SN.node[14].yCoor = 23.6111
SN.node[14].zCoor = 0
SN.node[15].xCoor = 9.78363
SN.node[15].yCoor = 33.5974
SN.node[15].zCoor = 0
SN.node[16].xCoor = 29.5925
SN.node[16].yCoor = 0.766129
SN.node[16].zCoor = 0
SN.node[17].xCoor = 35.8654
SN.node[17].yCoor = 40.4671
SN.node[17].zCoor = 0
SN.node[18].xCoor = 13.4222
SN.node[18].yCoor = 9.06618
SN.node[18].zCoor = 0
SN.node[19].xCoor = 8.97196
SN.node[19].yCoor = 5.06698
SN.node[19].zCoor = 0
SN.node[20].xCoor = 49.781
SN.node[20].yCoor = 5.62586
SN.node[20].zCoor = 0
SN.node[21].xCoor = 6.36512
SN.node[21].yCoor = 21.5409
SN.node[21].zCoor = 0
SN.node[22].xCoor = 47.4632
SN.node[22].yCoor = 36.9562
SN.node[22].zCoor = 0
SN.node[23].xCoor = 19.6479
SN.node[23].yCoor = 3.34135
SN.node[23].zCoor = 0
SN.node[24].xCoor = 2.65108
SN.node[24].yCoor = 38.4599
SN.node[24].zCoor = 0
SN.node[25].xCoor = 4.84542
SN.node[25].yCoor = 11.1826
SN.node[25].zCoor = 0
SN.node[26].xCoor = 18.1307
SN.node[26].yCoor = 14.9623
SN.node[26].zCoor = 0
SN.node[27].xCoor = 8.00002
SN.node[27].yCoor = 32.0135
SN.node[27].zCoor = 0
SN.node[28].xCoor = 4.67739
SN.node[28].yCoor = 38.1623
SN.node[28].zCoor = 0
SN.node[29].xCoor = 22.5277
SN.node[29].yCoor = 15.2028
SN.node[29].zCoor = 0
SN.node[30].xCoor = 9.89227
SN.node[30].yCoor = 24.8708
SN.node[30].zCoor = 0
SN.node[31].xCoor = 19.991
SN.node[31].yCoor = 39.0557
SN.node[31].zCoor = 0
SN.node[32].xCoor = 8.74735
SN.node[32].yCoor = 27.9745
SN.node[32].zCoor = 0
SN.node[33].xCoor = 1.91644
SN.node[33].yCoor = 13.6966
SN.node[33].zCoor = 0
SN.node[34].xCoor = 45.7043
SN.node[34].yCoor = 38.9325
SN.node[34].zCoor = 0
SN.node[35].xCoor = 49.2531
SN.node[35].yCoor = 23.6001
SN.node[35].zCoor = 0
SN.node[36].xCoor = 32.0219
SN.node[36].yCoor = 2.06795
SN.node[36].zCoor = 0
SN.node[37].xCoor = 0.0629673
SN.node[37].yCoor = 0.0254085
SN.node[37].zCoor = 0
SN.node[38].xCoor = 33.7923
SN.node[38].yCoor = 8.58474
SN.node[38].zCoor = 0
SN.node[39].xCoor = 10.9815
SN.node[39].yCoor = 27.5959
SN.node[39].zCoor = 0
SN.node[40].xCoor = 6.54005
SN.node[40].yCoor = 0.983658
SN.node[40].zCoor = 0
SN.node[41].xCoor = 38.2309
SN.node[41].yCoor = 7.43468
SN.node[41].zCoor = 0
SN.node[42].xCoor = 46.168
SN.node[42].yCoor = 29.2153
SN.node[42].zCoor = 0
SN.node[43].xCoor = 41.1935
SN.node[43].yCoor = 38.1162
SN.node[43].zCoor = 0
SN.node[44].xCoor = 29.4374
SN.node[44].yCoor = 20.4983
SN.node[44].zCoor = 0
SN.node[45].xCoor = 40.3462
SN.node[45].yCoor = 2.74192
SN.node[45].zCoor = 0
SN.node[46].xCoor = 13.7984
SN.node[46].yCoor = 34.4649
SN.node[46].zCoor = 0
SN.node[47].xCoor = 27.4968
SN.node[47].yCoor = 48.9932
SN.node[47].zCoor = 0
SN.node[48].xCoor = 40.9511
SN.node[48].yCoor = 24.3018
SN.node[48].zCoor = 0
SN.node[49].xCoor = 13.0982
SN.node[49].yCoor = 35.2512
SN.node[49].zCoor = 0
SN.node[50].xCoor = 12.1696
SN.node[50].yCoor = 2.09872
SN.node[50].zCoor = 0
SN.node[51].xCoor = 23.1077
SN.node[51].yCoor = 10.1419
SN.node[51].zCoor = 0
SN.node[52].xCoor = 41.989
SN.node[52].yCoor = 42.9438
SN.node[52].zCoor = 0
SN.node[53].xCoor = 33.9136
SN.node[53].yCoor = 40.9458
SN.node[53].zCoor = 0
SN.node[54].xCoor = 30.5016
SN.node[54].yCoor = 8.18228
SN.node[54].zCoor = 0
SN.node[55].xCoor = 48.3341
SN.node[55].yCoor = 10.0455
SN.node[55].zCoor = 0
SN.node[56].xCoor = 21.649
SN.node[56].yCoor = 36.5955
SN.node[56].zCoor = 0
SN.node[57].xCoor = 8.36619
SN.node[57].yCoor = 20.6554
SN.node[57].zCoor = 0
SN.node[58].xCoor = 44.1141
SN.node[58].yCoor = 14.1423
SN.node[58].zCoor = 0
SN.node[59].xCoor = 28.121
SN.node[59].yCoor = 9.15819
SN.node[59].zCoor = 0
SN.node[60].xCoor = 27.6528
SN.node[60].yCoor = 48.2242
SN.node[60].zCoor = 0
SN.node[61].xCoor = 9.31367
SN.node[61].yCoor = 32.3978
SN.node[61].zCoor = 0
SN.node[62].xCoor = 13.3144
SN.node[62].yCoor = 12.2223
SN.node[62].zCoor = 0
SN.node[63].xCoor = 25.4042
SN.node[63].yCoor = 29.3811
SN.node[63].zCoor = 0
SN.node[64].xCoor = 15.4868
SN.node[64].yCoor = 12.6478
SN.node[64].zCoor = 0
SN.node[65].xCoor = 40.0665
SN.node[65].yCoor = 44.4476
SN.node[65].zCoor = 0
SN.node[66].xCoor = 29.8006
SN.node[66].yCoor = 35.7394
SN.node[66].zCoor = 0
SN.node[67].xCoor = 11.5197
SN.node[67].yCoor = 42.7059
SN.node[67].zCoor = 0
SN.node[68].xCoor = 25.8714
SN.node[68].yCoor = 1.70797
SN.node[68].zCoor = 0
SN.node[69].xCoor = 26.1644
SN.node[69].yCoor = 20.7858
SN.node[69].zCoor = 0
SN.node[70].xCoor = 9.9144
SN.node[70].yCoor = 34.7257
SN.node[70].zCoor = 0
SN.node[71].xCoor = 37.7487
SN.node[71].yCoor = 43.6357
SN.node[71].zCoor = 0
SN.node[72].xCoor = 25.369
SN.node[72].yCoor = 42.6191
SN.node[72].zCoor = 0
SN.node[73].xCoor = 13.2592
SN.node[73].yCoor = 9.85429
SN.node[73].zCoor = 0
SN.node[74].xCoor = 39.3027
SN.node[74].yCoor = 17.757
SN.node[74].zCoor = 0
SN.node[75].xCoor = 37.3604
SN.node[75].yCoor = 7.93737
SN.node[75].zCoor = 0
SN.node[76].xCoor = 30.4666
SN.node[76].yCoor = 28.2984
SN.node[76].zCoor = 0
SN.node[77].xCoor = 41.0018
SN.node[77].yCoor = 31.5641
SN.node[77].zCoor = 0
SN.node[78].xCoor = 5.20736
SN.node[78].yCoor = 31.8154
SN.node[78].zCoor = 0
SN.node[79].xCoor = 41.7433
SN.node[79].yCoor = 16.3184
SN.node[79].zCoor = 0
SN.node[80].xCoor = 9.05674
SN.node[80].yCoor = 5.49137
SN.node[80].zCoor = 0
SN.node[81].xCoor = 39.1632
SN.node[81].yCoor = 0.969977
SN.node[81].zCoor = 0
SN.node[82].xCoor = 24.8221
SN.node[82].yCoor = 8.4251
SN.node[82].zCoor = 0
SN.node[83].xCoor = 26.0244
SN.node[83].yCoor = 18.8134
SN.node[83].zCoor = 0
SN.node[84].xCoor = 34.5989
SN.node[84].yCoor = 41.5997
SN.node[84].zCoor = 0
SN.node[85].xCoor = 47.7604
SN.node[85].yCoor = 27.8571
SN.node[85].zCoor = 0
SN.node[86].xCoor = 42.4215
SN.node[86].yCoor = 44.2582
SN.node[86].zCoor = 0
SN.node[87].xCoor = 25.4239
SN.node[87].yCoor = 32.8185
SN.node[87].zCoor = 0
SN.node[88].xCoor = 48.1673
SN.node[88].yCoor = 14.532
SN.node[88].zCoor = 0
SN.node[89].xCoor = 16.3884
SN.node[89].yCoor = 11.0097
SN.node[89].zCoor = 0
SN.node[90].xCoor = 8.60319
SN.node[90].yCoor = 12.3
SN.node[90].zCoor = 0
SN.node[91].xCoor = 35.4186
SN.node[91].yCoor = 35.8875
SN.node[91].zCoor = 0
SN.node[92].xCoor = 19.6372
SN.node[92].yCoor = 35.4627
SN.node[92].zCoor = 0
SN.node[93].xCoor = 36.3617
SN.node[93].yCoor = 43.1904
SN.node[93].zCoor = 0
SN.node[94].xCoor = 25.8165
SN.node[94].yCoor = 14.9435
SN.node[94].zCoor = 0
SN.node[95].xCoor = 10.3684
SN.node[95].yCoor = 37.9668
SN.node[95].zCoor = 0
SN.node[96].xCoor = 19.7025
SN.node[96].yCoor = 22.503
SN.node[96].zCoor = 0
SN.node[97].xCoor = 40.8196
SN.node[97].yCoor = 27.3103
SN.node[97].zCoor = 0
SN.node[98].xCoor = 32.3701
SN.node[98].yCoor = 31.8144
SN.node[98].zCoor = 0
SN.node[99].xCoor = 42.5611
SN.node[99].yCoor = 20.1636
SN.node[99].zCoor = 0
SN.node[100].xCoor = 15.1243
SN.node[100].yCoor = 22.5328
SN.node[100].zCoor = 0


#
#SN.node[0].xCoor = 25
#SN.node[0].yCoor = 25
#SN.node[0].zCoor = 0
#SN.node[1].xCoor = 9.01348
#SN.node[1].yCoor = 3.41534
#SN.node[1].zCoor = 0
#SN.node[2].xCoor = 33.236
#SN.node[2].yCoor = 23.1609
#SN.node[2].zCoor = 0
#SN.node[3].xCoor = 36.2467
#SN.node[3].yCoor = 46.3141
#SN.node[3].zCoor = 0
#SN.node[4].xCoor = 5.25876
#SN.node[4].yCoor = 24.2714
#SN.node[4].zCoor = 0
#SN.node[5].xCoor = 0.639041
#SN.node[5].yCoor = 44.817
#SN.node[5].zCoor = 0
#SN.node[6].xCoor = 41.3091
#SN.node[6].yCoor = 47.0903
#SN.node[6].zCoor = 0
#SN.node[7].xCoor = 42.5398
#SN.node[7].yCoor = 44.4854
#SN.node[7].zCoor = 0
#SN.node[8].xCoor = 35.6881
#SN.node[8].yCoor = 5.4368
#SN.node[8].zCoor = 0
#SN.node[9].xCoor = 44.6952
#SN.node[9].yCoor = 39.2694
#SN.node[9].zCoor = 0
#SN.node[10].xCoor = 29.3833
#SN.node[10].yCoor = 8.25433
#SN.node[10].zCoor = 0
#SN.node[11].xCoor = 31.6167
#SN.node[11].yCoor = 33.6255
#SN.node[11].zCoor = 0
#SN.node[12].xCoor = 48.5035
#SN.node[12].yCoor = 5.83686
#SN.node[12].zCoor = 0
#SN.node[13].xCoor = 15.8184
#SN.node[13].yCoor = 38.9052
#SN.node[13].zCoor = 0
#SN.node[14].xCoor = 1.25746
#SN.node[14].yCoor = 37.949
#SN.node[14].zCoor = 0
#SN.node[15].xCoor = 40.9138
#SN.node[15].yCoor = 20.5456
#SN.node[15].zCoor = 0
#SN.node[16].xCoor = 9.48514
#SN.node[16].yCoor = 15.9399
#SN.node[16].zCoor = 0
#SN.node[17].xCoor = 5.58306
#SN.node[17].yCoor = 43.2002
#SN.node[17].zCoor = 0
#SN.node[18].xCoor = 7.75724
#SN.node[18].yCoor = 35.6363
#SN.node[18].zCoor = 0
#SN.node[19].xCoor = 29.9772
#SN.node[19].yCoor = 24.1553
#SN.node[19].zCoor = 0
#SN.node[20].xCoor = 39.1655
#SN.node[20].yCoor = 23.9899
#SN.node[20].zCoor = 0


#
#
#SN.node[0].xCoor = 25
#SN.node[0].yCoor = 25
#SN.node[0].zCoor = 0
#SN.node[1].xCoor = 27.4407
#SN.node[1].yCoor = 29.6422
#SN.node[1].zCoor = 0
#SN.node[2].xCoor = 42.2133
#SN.node[2].yCoor = 30.1382
#SN.node[2].zCoor = 0
#SN.node[3].xCoor = 27.2442
#SN.node[3].yCoor = 42.3626
#SN.node[3].zCoor = 0
#SN.node[4].xCoor = 31.1782
#SN.node[4].yCoor = 32.2947
#SN.node[4].zCoor = 0
#SN.node[5].xCoor = 21.8794
#SN.node[5].yCoor = 14.8767
#SN.node[5].zCoor = 0
#SN.node[6].xCoor = 2.83565
#SN.node[6].yCoor = 48.1831
#SN.node[6].zCoor = 0
#SN.node[7].xCoor = 19.1721
#SN.node[7].yCoor = 23.8833
#SN.node[7].zCoor = 0
#SN.node[8].xCoor = 40.6084
#SN.node[8].yCoor = 26.4447
#SN.node[8].zCoor = 0
#SN.node[9].xCoor = 28.4022
#SN.node[9].yCoor = 19.6392
#SN.node[9].zCoor = 0
#SN.node[10].xCoor = 41.8039
#SN.node[10].yCoor = 3.5518
#SN.node[10].zCoor = 0
#SN.node[11].xCoor = 4.35646
#SN.node[11].yCoor = 32.4086
#SN.node[11].zCoor = 0
#SN.node[12].xCoor = 18.4121
#SN.node[12].yCoor = 41.631
#SN.node[12].zCoor = 0
#SN.node[13].xCoor = 38.9078
#SN.node[13].yCoor = 7.01754
#SN.node[13].zCoor = 0
#SN.node[14].xCoor = 43.5044
#SN.node[14].yCoor = 48.9309
#SN.node[14].zCoor = 0
#SN.node[15].xCoor = 39.9579
#SN.node[15].yCoor = 40.0455
#SN.node[15].zCoor = 0
#SN.node[16].xCoor = 26.0239
#SN.node[16].yCoor = 39.0265
#SN.node[16].zCoor = 0
#SN.node[17].xCoor = 5.91372
#SN.node[17].yCoor = 36.0316
#SN.node[17].zCoor = 0
#SN.node[18].xCoor = 29.101
#SN.node[18].yCoor = 7.16766
#SN.node[18].zCoor = 0
#SN.node[19].xCoor = 47.2334
#SN.node[19].yCoor = 37.9308
#SN.node[19].zCoor = 0
#SN.node[20].xCoor = 5.29538
#SN.node[20].yCoor = 20.7331
#SN.node[20].zCoor = 0




#==========================================================================
#						Parâmetros ds Topologia da Rede
#==========================================================================


#==========================================================================
#						Configuracao 100 Nodos - Estática
#==========================================================================
[Config redeE100]

SN.numNodes = 101

#SN.node[*].startupRandomization = 0
#SN.node[*].startupOffset = 0
SN.node[*].ResourceManager.initialEnergy = 18720

SN.deployment = "[0]->center; [1..100]->uniform"

#==========================================================================
#						Configuracao 80 Nodos - Estática
#==========================================================================
[Config redeE80]

SN.numNodes = 81


SN.node[*].startupRandomization = 0
SN.node[*].startupOffset = 0
SN.node[*].ResourceManager.initialEnergy = 18720

SN.deployment = "[0]->center; [1..80]->uniform"
#==========================================================================
#						Configuracao 60 Nodos - Estática
#==========================================================================
[Config redeE60]

SN.numNodes = 61

SN.node[*].startupRandomization = 0
SN.node[*].startupOffset = 0
SN.node[*].ResourceManager.initialEnergy = 18720

SN.deployment = "[0]->center; [1..60]->uniform"
#==========================================================================
#						Configuracao 40 Nodos - Estática
#==========================================================================
[Config redeE40]

SN.numNodes = 41

SN.node[*].startupRandomization = 0
SN.node[*].startupOffset = 0
SN.node[*].ResourceManager.initialEnergy = 18720

SN.deployment = "[0]->center; [1..40]->uniform"
#==========================================================================
#						Configuracao 20 Nodos - Estática
#==========================================================================
[Config redeE20]
#seed-set = ${repetition}

SN.numNodes = 21

SN.node[*].startupRandomization = 0
SN.node[*].startupOffset = 0
SN.node[*].ResourceManager.initialEnergy = 18720

SN.deployment = "[0]->center; [1..20]->uniform"







#==========================================================================
#						Configuracao 100 Nodos - Dinâmica
#==========================================================================
[Config rede100]

SN.numNodes = 101

SN.node[*].startupRandomization = 0
SN.node[*].ResourceManager.initialEnergy = 18720
SN.node[0..50].startupOffset = 0
SN.node[51..55].startupOffset = 50
SN.node[56..60].startupOffset = 80
SN.node[61..65].startupOffset = 110
SN.node[66..70].startupOffset = 140
SN.node[71..75].startupOffset = 170
SN.node[76..80].startupOffset = 200
SN.node[81..85].startupOffset = 230
SN.node[86..90].startupOffset = 260
SN.node[91..95].startupOffset = 290
SN.node[96..100].startupOffset = 320



SN.node[30..33].pausar = true
SN.node[30..33].pausarNoTempo = 320
SN.node[30..33].retornarNoTempo = 370

SN.node[40..43].pausar = true
SN.node[40..43].pausarNoTempo = 330
SN.node[40..43].retornarNoTempo = 480

SN.node[50..53].pausar = true
SN.node[50..53].pausarNoTempo = 340
SN.node[50..53].retornarNoTempo = 390

SN.node[60..63].pausar = true
SN.node[60..63].pausarNoTempo = 350
SN.node[60..63].retornarNoTempo = 450

SN.node[70..73].pausar = true
SN.node[70..73].pausarNoTempo = 360
SN.node[70..73].retornarNoTempo = 450


SN.deployment = "[0]->center; [1..100]->uniform"

#==========================================================================
#						Configuracao 80 Nodos - Dinâmica
#==========================================================================
[Config rede80]

SN.numNodes = 81

SN.node[*].startupRandomization = 0
SN.node[*].ResourceManager.initialEnergy = 18720
SN.node[0..40].startupOffset = 0
SN.node[41..45].startupOffset = 50
SN.node[46..50].startupOffset = 80
SN.node[51..55].startupOffset = 110
SN.node[56..60].startupOffset = 140
SN.node[61..65].startupOffset = 170
SN.node[66..70].startupOffset = 200
SN.node[71..75].startupOffset = 230
SN.node[76..80].startupOffset = 260

SN.node[10..13].pausar = true
SN.node[10..13].pausarNoTempo = 320
SN.node[10..13].retornarNoTempo = 370

SN.node[20..23].pausar = true
SN.node[20..23].pausarNoTempo = 330
SN.node[20..23].retornarNoTempo = 380

SN.node[40..43].pausar = true
SN.node[40..43].pausarNoTempo = 340
SN.node[40..43].retornarNoTempo = 390

SN.node[50..53].pausar = true
SN.node[50..53].pausarNoTempo = 350
SN.node[50..53].retornarNoTempo = 400


SN.deployment = "[0]->center; [1..80]->uniform"

#==========================================================================
#						Configuracao 60 Nodos - Dinâmica
#==========================================================================
[Config rede60]

SN.numNodes = 61

SN.node[*].startupRandomization = 0
SN.node[*].ResourceManager.initialEnergy = 18720
SN.node[0..30].startupOffset = 0
SN.node[31..35].startupOffset = 50
SN.node[36..40].startupOffset = 80
SN.node[41..45].startupOffset = 110
SN.node[46..50].startupOffset = 140
SN.node[51..55].startupOffset = 170
SN.node[56..60].startupOffset = 200


SN.node[10..13].pausar = true
SN.node[10..13].pausarNoTempo = 320
SN.node[10..13].retornarNoTempo = 370

SN.node[20..23].pausar = true
SN.node[20..23].pausarNoTempo = 330
SN.node[20..23].retornarNoTempo = 380

SN.node[30..33].pausar = true
SN.node[30..33].pausarNoTempo = 340
SN.node[30..33].retornarNoTempo = 390



SN.deployment = "[0]->center; [1..60]->uniform"

#==========================================================================
#						Configuracao 40 Nodos - Dinâmica
#==========================================================================
[Config rede40]

SN.numNodes = 41

SN.node[*].startupRandomization = 0
SN.node[*].ResourceManager.initialEnergy = 18720
SN.node[0..20].startupOffset = 0
SN.node[21..25].startupOffset = 50
SN.node[26..30].startupOffset = 80
SN.node[31..35].startupOffset = 110
SN.node[36..40].startupOffset = 140


SN.node[10..13].pausar = true
SN.node[10..13].pausarNoTempo = 320
SN.node[10..13].retornarNoTempo = 370

SN.node[20..23].pausar = true
SN.node[20..23].pausarNoTempo = 330
SN.node[20..23].retornarNoTempo = 380




SN.deployment = "[0]->center; [1..40]->uniform"

#==========================================================================
#						Configuracao 20 Nodos - Dinâmica
#==========================================================================

[Config rede20]

SN.numNodes = 21

SN.node[*].startupRandomization = 0
SN.node[*].ResourceManager.initialEnergy = 18720
SN.node[0..10].startupOffset = 0
SN.node[11..15].startupOffset = 50
SN.node[16..20].startupOffset = 80


SN.node[7..10].pausar = true
SN.node[7..10].pausarNoTempo = 320 #70 # o correto é 320
SN.node[7..10].retornarNoTempo = 370 #100 # o correto é 370



SN.deployment = "[0]->center; [1..20]->uniform"

