
[General]

# =============================================
# Always include the main Castalia.ini file
# =============================================
include ../Parameters/Castalia.ini
#debug-on-errors=true

#7041
#==========================================================================
#						Tempo de Simulação
#==========================================================================
#sim-time-limit = 625s
#sim-time-limit = 100s  
sim-time-limit = 450s  # É o oficial das simulações


#==========================================================================
#						Área de Simulação
#==========================================================================
SN.field_x = 50	# meters
SN.field_y = 50	# meters


#==========================================================================
#						Coleta de Traces
#==========================================================================
SN.node[*].Communication.MAC.collectTraceInfo = true
SN.node[*].Application.collectTraceInfo = false
SN.node[*].Communication.Radio.collectTraceInfo = false
SN.node[*].MobilityManager.collectTraceInfo = true


#==========================================================================
#						Parâmetros do Radio
#==========================================================================
SN.node[*].Communication.Radio.RadioParametersFile = "../Parameters/Radio/CC2420.txt"
SN.node[*].Communication.Radio.symbolsForRSSI = 16
#SN.node[*].Communication.Radio.TxOutputPower = "-15dBm"
SN.node[*].Communication.Radio.TxOutputPower = "0dBm" # Parâmetro Luan // configura a potencia que o radio entrega seus pacotes
#SN.node[*].Communication.Radio.maxPhyFrameSize=256 #tamanho maximo do pacote na camada de radio
#SN.node[*].communication.radio.collisionModel = 1
#SN.node[*].Communication.MAC.macBufferSize = 1


#==========================================================================
#						Parâmetros da Aplicação
#==========================================================================
SN.node[*].ApplicationName = "ThroughputTest"
SN.node[*].Application.startupDelay = 1  	#wait for 1sec before starting sending packets
SN.node[0].Application.latencyHistogramMax = 600
SN.node[0].Application.latencyHistogramBuckets = 30
SN.node[*].Application.packet_rate = 0.45 # taxa de pacotes entregues por segundo, era 1



#==========================================================================
#						Parâmetros MAC
#==========================================================================
SN.node[*].Communication.MACProtocolName = "StaticGTS802154"
#SN.node[*].Communication.MACProtocolName = "Basic802154"
SN.node[0].Communication.MAC.isFFD = true
SN.node[0].Communication.MAC.isPANCoordinator = true
SN.node[*].Communication.MAC.phyDataRate = 250 # como definido no CC2420
SN.node[*].Communication.MAC.phyBitsPerSymbol = 4 # como definido no CC2420
SN.node[*].Communication.MAC.numSuperframeSlots = 145 #145 #com 22 nodos coloco 46 / com 11 nodos coloco 28
#SN.node[*].Communication.MAC.beaconOrder = 6 #com 22 nodos
#SN.node[*].Communication.MAC.frameOrder =  6 #com 22 nodos
#SN.node[*].Communication.MAC.baseSlotDuration = 20

SN.node[*].Communication.MAC.requestGTS = 1 # cada nodo solicita um GTS
SN.node[*].Communication.MAC.gtsOnly = true  # quando a rede é dinamica deixo comentada essa linha

SN.node[*].Communication.MAC.macMaxFrameRetries = 1 # numero de transmissões
SN.node[*].Communication.MAC.tempConfig = 5   #numero de BI para configuracao da Rede
SN.node[*].Communication.MAC.tempAtualizVizinhanca = 7 #5 #  #numero de BI para acordar e escutar a vizinhanca -- se usar três para o adaptativo fica melhor
SN.node[*].Communication.MAC.selecao = 4   #é 4 o default
SN.node[*].Communication.MAC.userelay = true
SN.node[*].Communication.MAC.smart = true # seleção ocorre de forma dinâmica, de acoro com a necessidade
SN.node[*].Communication.MAC.smartPeriodic = false #seleção ocorre de forma periódica
SN.node[*].Communication.MAC.aleatoria = false
SN.node[*].Communication.MAC.oportunista = false
SN.node[*].Communication.MAC.completamenteAleatoria = false
SN.node[*].Communication.MAC.redeDinamica = true



#Parâmetros para selecionar cooperantes#
SN.node[*].Communication.MAC.beta1 = 0.5  #Energia
SN.node[*].Communication.MAC.beta2 = 1.5  #RSSI
SN.node[*].Communication.MAC.beta3 = 1.0  #Vizinhos
SN.node[*].Communication.MAC.beta4 = 1.5  #Historico de Taxa de Sucesso

#==========================================================================
#						Parâmetros da Codificação
#==========================================================================

SN.node[*].Communication.MAC.useNetworkCoding = true

#==========================================================================
#						Parâmetros do Módulo ResourceManager
#==========================================================================
#SN.node[*].ResourceManager.initialEnergy = 18720 #É o valor default em joules, equivale a duas pilhas AA
#SN.node[*].ResourceManager.sigmaCPUClockDrift = 0.00001333 # É para considerar o clock drift do nodo
SN.node[*].ResourceManager.sigmaCPUClockDrift = 0 # É para desconsiderar o clock drift do nodo
SN.node[*].ResourceManager.baselineNodePower = 0


# ============================================================================
#                              Modelo de interferência
# ============================================================================
#SN.wirelessChannel.temporalModelParametersFile = "../Parameters/WirelessChannel/BANmodels/TemporalModel.txt"
SN.wirelessChannel.temporalModelParametersFile = ""

## Removing variability from wireless channel
## transmissores a uma certa distância pega a mesma força de sinal
#SN.wirelessChannel.sigma = 0
## links perfeitamente bidirecionais
#SN.wirelessChannel.bidirectionalSigma = 0
## Módulo de rádio ideal: modelo de disco para o raio
SN.node[*].Communication.Radio.mode = "IDEAL"
#SN.wirelessChannel.pathLossExponent = 1.5
 ## Controlar o raio do disco
#SN.wirelessChannel.PLd0 = (TxPowerUsed_dBm – max(receiverSensitivity, noisefloor+5dBm) ) – 10*pathLossExponent*log(50)
## Para raio de 100 metros, por exemplo, PLd0 = TX + 95 - 48
#SN.wirelessChannel.PLd0 = 48.55  ## Raio de aproximadamente 40 metros
#SN.wirelessChannel.PLd0 = 52  ## Raio de aproximadamente 60 metros
#SN.wirelessChannel.PLd0 = 40  ## Raio de aproximadamente 195 metros


#SN.numNodes = 21
#
#SN.node[*].startupRandomization = 0
#SN.node[*].startupOffset = 0
#SN.node[*].ResourceManager.initialEnergy = 18720
#
#SN.deployment = "[0]->center; [1..20]->uniform"

#==========================================================================
# Aqui o coordenador não escutará o nodo 1, e o cooperante (nodo 2) encaminhará as mensagens deste
#SN.numNodes = 9
#
#SN.node[0].xCoor = 25
#SN.node[0].yCoor = 25
#SN.node[1].xCoor = 18.4121
#SN.node[1].yCoor = 41.631
#SN.node[2].xCoor = 27.2442
#SN.node[2].yCoor = 42.3626
#SN.node[3].xCoor = 27.2442
#SN.node[3].yCoor = 42.3626
#SN.node[4].xCoor = 26.0239
#SN.node[4].yCoor = 39.0265
#SN.node[5].xCoor = 31.1782
#SN.node[5].yCoor = 32.2947
#SN.node[6].xCoor = 19.1721
#SN.node[6].yCoor = 23.8833
#SN.node[7].xCoor = 41.8039
#SN.node[7].yCoor = 3.5518
#SN.node[8].xCoor = 27.4407
#SN.node[8].yCoor = 29.6422
#
#SN.node[*].startupRandomization = 0
#SN.node[*].startupOffset = 0
#SN.node[*].ResourceManager.initialEnergy = 18720
#==========================================================================
#SN.numNodes = 9
#
#SN.node[0].xCoor = 25
#SN.node[0].yCoor = 25
#SN.node[1].xCoor = 18.4121
#SN.node[1].yCoor = 41.631
#SN.node[2].xCoor = 27.2442 
#SN.node[2].yCoor = 42.3626
#SN.node[3].xCoor = 27.2442
#SN.node[3].yCoor = 42.3626
#SN.node[4].xCoor = 26.0239
#SN.node[4].yCoor = 39.0265
#SN.node[5].xCoor = 31.1782
#SN.node[5].yCoor = 32.2947
#SN.node[6].xCoor = 19.1721
#SN.node[6].yCoor = 23.8833
#SN.node[7].xCoor = 18.40
#SN.node[7].yCoor = 41.6331
#SN.node[8].xCoor = 27.4407
#SN.node[8].yCoor = 29.6422
#
#SN.node[*].startupRandomization = 0
#SN.node[*].startupOffset = 0
#SN.node[*].ResourceManager.initialEnergy = 18720


#==========================================================================
#Neste cenário o coordenador perde as mensagens do nodo 1 e no nodo 7. São selecionados os cooperantes 2 e 8.
#SN.numNodes = 9
#
#SN.node[0].xCoor = 25
#SN.node[0].yCoor = 25
#SN.node[1].xCoor = 10.4121
#SN.node[1].yCoor = 13.631
#SN.node[2].xCoor = 21.2442 
#SN.node[2].yCoor = 19.0000
#SN.node[3].xCoor = 21.2442
#SN.node[3].yCoor = 5.3626
#SN.node[4].xCoor = 24.0239
#SN.node[4].yCoor = 30.0265
#SN.node[5].xCoor = 27.1782
#SN.node[5].yCoor = 12.2947
#SN.node[6].xCoor = 40.1721
#SN.node[6].yCoor = 13.8833
#SN.node[7].xCoor = 49.40
#SN.node[7].yCoor = 5.6331
#SN.node[8].xCoor = 16.4407
#SN.node[8].yCoor = 25.6422
#
#SN.node[*].startupRandomization = 0
#SN.node[*].startupOffset = 0
#SN.node[*].ResourceManager.initialEnergy = 18720

#==========================================================================
#SN.numNodes = 21
#
#SN.node[*].startupRandomization = 0
#SN.node[*].ResourceManager.initialEnergy = 18720
#SN.node[0..10].startupOffset = 0
#SN.node[11..15].startupOffset = 50
#SN.node[16..20].startupOffset = 80
#
#
#SN.node[7..10].pausar = true
#SN.node[7..10].pausarNoTempo = 320 #70 # o correto é 320
#SN.node[7..10].retornarNoTempo = 370 #100 # o correto é 370
#
#SN.node[0].xCoor = 25
#SN.node[0].yCoor = 25
#SN.node[1].xCoor = 12.4255
#SN.node[1].yCoor = 34.4841
#SN.node[2].xCoor = 33.4641
#SN.node[2].yCoor = 20.547
#SN.node[3].xCoor = 13.015
#SN.node[3].yCoor = 5.4971
#SN.node[4].xCoor = 37.5462
#SN.node[4].yCoor = 9.252
#SN.node[5].xCoor = 0.983071
#SN.node[5].yCoor = 42.5231
#SN.node[6].xCoor = 43.9906
#SN.node[6].yCoor = 34.0225
#SN.node[7].xCoor = 24.3294
#SN.node[7].yCoor = 40.8694
#SN.node[8].xCoor = 11.0737
#SN.node[8].yCoor = 19.6699
#SN.node[9].xCoor = 3.97788
#SN.node[9].yCoor = 23.1662
#SN.node[10].xCoor = 5.35757
#SN.node[10].yCoor = 8.18176
#SN.node[11].xCoor = 49.1583
#SN.node[11].yCoor = 48.2076
#SN.node[12].xCoor = 4.90676
#SN.node[12].yCoor = 24.7032
#SN.node[13].xCoor = 20.048
#SN.node[13].yCoor = 18.1763
#SN.node[14].xCoor = 41.5416
#SN.node[14].yCoor = 36.0438
#SN.node[15].xCoor = 12.3884
#SN.node[15].yCoor = 10.3776
#SN.node[16].xCoor = 12.7817
#SN.node[16].yCoor = 7.12244
#SN.node[17].xCoor = 10.0588
#SN.node[17].yCoor = 28.0433
#SN.node[18].xCoor = 5.9961
#SN.node[18].yCoor = 47.6736
#SN.node[19].xCoor = 2.78691
#SN.node[19].yCoor = 45.7012
#SN.node[20].xCoor = 33.1249
#SN.node[20].yCoor = 36.1499

SN.numNodes = 101

SN.node[*].startupRandomization = 0
SN.node[*].ResourceManager.initialEnergy = 18720
SN.node[0..50].startupOffset = 0
SN.node[51..55].startupOffset = 50
SN.node[56..60].startupOffset = 80
SN.node[61..65].startupOffset = 110
SN.node[66..70].startupOffset = 140
SN.node[71..75].startupOffset = 170
SN.node[76..80].startupOffset = 200
SN.node[81..85].startupOffset = 230
SN.node[86..90].startupOffset = 260
SN.node[91..95].startupOffset = 290
SN.node[96..100].startupOffset = 320



SN.node[30..33].pausar = true
SN.node[30..33].pausarNoTempo = 320
SN.node[30..33].retornarNoTempo = 370

SN.node[40..43].pausar = true
SN.node[40..43].pausarNoTempo = 330
SN.node[40..43].retornarNoTempo = 480

SN.node[50..53].pausar = true
SN.node[50..53].pausarNoTempo = 340
SN.node[50..53].retornarNoTempo = 390

SN.node[60..63].pausar = true
SN.node[60..63].pausarNoTempo = 350
SN.node[60..63].retornarNoTempo = 450

SN.node[70..73].pausar = true
SN.node[70..73].pausarNoTempo = 360
SN.node[70..73].retornarNoTempo = 450


SN.node[0].xCoor = 25
SN.node[0].yCoor = 25
SN.node[0].zCoor = 0
SN.node[1].xCoor = 27.4407
SN.node[1].yCoor = 29.6422
SN.node[1].zCoor = 0
SN.node[2].xCoor = 42.2133
SN.node[2].yCoor = 30.1382
SN.node[2].zCoor = 0
SN.node[3].xCoor = 27.2442
SN.node[3].yCoor = 42.3626
SN.node[3].zCoor = 0
SN.node[4].xCoor = 31.1782
SN.node[4].yCoor = 32.2947
SN.node[4].zCoor = 0
SN.node[5].xCoor = 21.8794
SN.node[5].yCoor = 14.8767
SN.node[5].zCoor = 0
SN.node[6].xCoor = 2.83565
SN.node[6].yCoor = 48.1831
SN.node[6].zCoor = 0
SN.node[7].xCoor = 19.1721
SN.node[7].yCoor = 23.8833
SN.node[7].zCoor = 0
SN.node[8].xCoor = 40.6084
SN.node[8].yCoor = 26.4447
SN.node[8].zCoor = 0
SN.node[9].xCoor = 28.4022
SN.node[9].yCoor = 19.6392
SN.node[9].zCoor = 0
SN.node[10].xCoor = 41.8039
SN.node[10].yCoor = 3.5518
SN.node[10].zCoor = 0
SN.node[11].xCoor = 4.35646
SN.node[11].yCoor = 32.4086
SN.node[11].zCoor = 0
SN.node[12].xCoor = 18.4121
SN.node[12].yCoor = 41.631
SN.node[12].zCoor = 0
SN.node[13].xCoor = 38.9078
SN.node[13].yCoor = 7.01754
SN.node[13].zCoor = 0
SN.node[14].xCoor = 43.5044
SN.node[14].yCoor = 48.9309
SN.node[14].zCoor = 0
SN.node[15].xCoor = 39.9579
SN.node[15].yCoor = 40.0455
SN.node[15].zCoor = 0
SN.node[16].xCoor = 26.0239
SN.node[16].yCoor = 39.0265
SN.node[16].zCoor = 0
SN.node[17].xCoor = 5.91372
SN.node[17].yCoor = 36.0316
SN.node[17].zCoor = 0
SN.node[18].xCoor = 29.101
SN.node[18].yCoor = 7.16766
SN.node[18].zCoor = 0
SN.node[19].xCoor = 47.2334
SN.node[19].yCoor = 37.9308
SN.node[19].zCoor = 0
SN.node[20].xCoor = 5.29538
SN.node[20].yCoor = 20.7331
SN.node[20].zCoor = 0
SN.node[21].xCoor = 13.2278
SN.node[21].yCoor = 9.31662
SN.node[21].zCoor = 0
SN.node[22].xCoor = 36.8459
SN.node[22].yCoor = 22.8075
SN.node[22].zCoor = 0
SN.node[23].xCoor = 28.4217
SN.node[23].yCoor = 6.76091
SN.node[23].zCoor = 0
SN.node[24].xCoor = 16.2071
SN.node[24].yCoor = 30.8818
SN.node[24].zCoor = 0
SN.node[25].xCoor = 30.6048
SN.node[25].yCoor = 11.1161
SN.node[25].zCoor = 0
SN.node[26].xCoor = 19.3244
SN.node[26].yCoor = 47.1874
SN.node[26].zCoor = 0
SN.node[27].xCoor = 34.091
SN.node[27].yCoor = 22.4975
SN.node[27].zCoor = 0
SN.node[28].xCoor = 30.6532
SN.node[28].yCoor = 21.8516
SN.node[28].zCoor = 0
SN.node[29].xCoor = 34.8816
SN.node[29].yCoor = 4.96402
SN.node[29].zCoor = 0
SN.node[30].xCoor = 48.4905
SN.node[30].yCoor = 33.3383
SN.node[30].zCoor = 0
SN.node[31].xCoor = 33.5319
SN.node[31].yCoor = 8.54548
SN.node[31].zCoor = 0
SN.node[32].xCoor = 17.9076
SN.node[32].yCoor = 6.44631
SN.node[32].zCoor = 0
SN.node[33].xCoor = 15.7714
SN.node[33].yCoor = 30.3915
SN.node[33].zCoor = 0
SN.node[34].xCoor = 16.2524
SN.node[34].yCoor = 28.5098
SN.node[34].zCoor = 0
SN.node[35].xCoor = 21.9301
SN.node[35].yCoor = 31.7137
SN.node[35].zCoor = 0
SN.node[36].xCoor = 47.9475
SN.node[36].yCoor = 5.10224
SN.node[36].zCoor = 0
SN.node[37].xCoor = 10.4438
SN.node[37].yCoor = 31.7529
SN.node[37].zCoor = 0
SN.node[38].xCoor = 49.765
SN.node[38].yCoor = 32.6554
SN.node[38].zCoor = 0
SN.node[39].xCoor = 12.6646
SN.node[39].yCoor = 20.7184
SN.node[39].zCoor = 0
SN.node[40].xCoor = 23.7349
SN.node[40].yCoor = 12.2213
SN.node[40].zCoor = 0
SN.node[41].xCoor = 7.94848
SN.node[41].yCoor = 16.9004
SN.node[41].zCoor = 0
SN.node[42].xCoor = 33.7376
SN.node[42].yCoor = 32.8165
SN.node[42].zCoor = 0
SN.node[43].xCoor = 6.90915
SN.node[43].yCoor = 38.9173
SN.node[43].zCoor = 0
SN.node[44].xCoor = 47.4786
SN.node[44].yCoor = 18.4363
SN.node[44].zCoor = 0
SN.node[45].xCoor = 41.0497
SN.node[45].yCoor = 0.678582
SN.node[45].zCoor = 0
SN.node[46].xCoor = 31.1423
SN.node[46].yCoor = 41.8972
SN.node[46].zCoor = 0
SN.node[47].xCoor = 4.80492
SN.node[47].yCoor = 48.5972
SN.node[47].zCoor = 0
SN.node[48].xCoor = 43.9097
SN.node[48].yCoor = 23.4326
SN.node[48].zCoor = 0
SN.node[49].xCoor = 48.8381
SN.node[49].yCoor = 2.78573
SN.node[49].zCoor = 0
SN.node[50].xCoor = 22.558
SN.node[50].yCoor = 36.9632
SN.node[50].zCoor = 0
SN.node[51].xCoor = 1.95939
SN.node[51].yCoor = 22.0855
SN.node[51].zCoor = 0
SN.node[52].xCoor = 48.9793
SN.node[52].yCoor = 6.00983
SN.node[52].zCoor = 0
SN.node[53].xCoor = 14.807
SN.node[53].yCoor = 24.0447
SN.node[53].zCoor = 0
SN.node[54].xCoor = 34.4331
SN.node[54].yCoor = 15.8992
SN.node[54].zCoor = 0
SN.node[55].xCoor = 20.7131
SN.node[55].yCoor = 45.9118
SN.node[55].zCoor = 0
SN.node[56].xCoor = 10.8411
SN.node[56].yCoor = 34.6236
SN.node[56].zCoor = 0
SN.node[57].xCoor = 28.3301
SN.node[57].yCoor = 43.2551
SN.node[57].zCoor = 0
SN.node[58].xCoor = 25.4484
SN.node[58].yCoor = 26.1624
SN.node[58].zCoor = 0
SN.node[59].xCoor = 4.69703
SN.node[59].yCoor = 46.0579
SN.node[59].zCoor = 0
SN.node[60].xCoor = 4.15562
SN.node[60].yCoor = 46.4648
SN.node[60].zCoor = 0
SN.node[61].xCoor = 15.9284
SN.node[61].yCoor = 0.467835
SN.node[61].zCoor = 0
SN.node[62].xCoor = 42.1171
SN.node[62].yCoor = 6.58989
SN.node[62].zCoor = 0
SN.node[63].xCoor = 35.8164
SN.node[63].yCoor = 42.0693
SN.node[63].zCoor = 0
SN.node[64].xCoor = 13.2365
SN.node[64].yCoor = 9.15957
SN.node[64].zCoor = 0
SN.node[65].xCoor = 29.3256
SN.node[65].yCoor = 27.6411
SN.node[65].zCoor = 0
SN.node[66].xCoor = 8.24702
SN.node[66].yCoor = 41.447
SN.node[66].zCoor = 0
SN.node[67].xCoor = 0.234774
SN.node[67].yCoor = 7.32209
SN.node[67].zCoor = 0
SN.node[68].xCoor = 28.4809
SN.node[68].yCoor = 13.5004
SN.node[68].zCoor = 0
SN.node[69].xCoor = 36.7597
SN.node[69].yCoor = 14.4238
SN.node[69].zCoor = 0
SN.node[70].xCoor = 21.6644
SN.node[70].yCoor = 12.4377
SN.node[70].zCoor = 0
SN.node[71].xCoor = 28.8079
SN.node[71].yCoor = 19.8049
SN.node[71].zCoor = 0
SN.node[72].xCoor = 44.8019
SN.node[72].yCoor = 28.6126
SN.node[72].zCoor = 0
SN.node[73].xCoor = 11.1541
SN.node[73].yCoor = 44.5777
SN.node[73].zCoor = 0
SN.node[74].xCoor = 34.0028
SN.node[74].yCoor = 22.3563
SN.node[74].zCoor = 0
SN.node[75].xCoor = 42.3204
SN.node[75].yCoor = 48.9285
SN.node[75].zCoor = 0
SN.node[76].xCoor = 5.8101
SN.node[76].yCoor = 14.8718
SN.node[76].zCoor = 0
SN.node[77].xCoor = 40.6899
SN.node[77].yCoor = 20.591
SN.node[77].zCoor = 0
SN.node[78].xCoor = 33.772
SN.node[78].yCoor = 44.0552
SN.node[78].zCoor = 0
SN.node[79].xCoor = 29.0636
SN.node[79].yCoor = 15.6609
SN.node[79].zCoor = 0
SN.node[80].xCoor = 48.2708
SN.node[80].yCoor = 34.6266
SN.node[80].zCoor = 0
SN.node[81].xCoor = 36.2627
SN.node[81].yCoor = 32.9834
SN.node[81].zCoor = 0
SN.node[82].xCoor = 26.6603
SN.node[82].yCoor = 47.8042
SN.node[82].zCoor = 0
SN.node[83].xCoor = 32.1995
SN.node[83].yCoor = 19.7435
SN.node[83].zCoor = 0
SN.node[84].xCoor = 30.9404
SN.node[84].yCoor = 30.3197
SN.node[84].zCoor = 0
SN.node[85].xCoor = 0.95966
SN.node[85].yCoor = 23.5066
SN.node[85].zCoor = 0
SN.node[86].xCoor = 35.8037
SN.node[86].yCoor = 33.0087
SN.node[86].zCoor = 0
SN.node[87].xCoor = 14.5039
SN.node[87].yCoor = 19.1731
SN.node[87].zCoor = 0
SN.node[88].xCoor = 37.4585
SN.node[88].yCoor = 21.4384
SN.node[88].zCoor = 0
SN.node[89].xCoor = 6.7737
SN.node[89].yCoor = 5.14317
SN.node[89].zCoor = 0
SN.node[90].xCoor = 4.61869
SN.node[90].yCoor = 28.4982
SN.node[90].zCoor = 0
SN.node[91].xCoor = 29.5436
SN.node[91].yCoor = 27.5908
SN.node[91].zCoor = 0
SN.node[92].xCoor = 1.68125
SN.node[92].yCoor = 32.66
SN.node[92].zCoor = 0
SN.node[93].xCoor = 32.6052
SN.node[93].yCoor = 16.0499
SN.node[93].zCoor = 0
SN.node[94].xCoor = 11.0631
SN.node[94].yCoor = 44.8273
SN.node[94].zCoor = 0
SN.node[95].xCoor = 18.3781
SN.node[95].yCoor = 4.863
SN.node[95].zCoor = 0
SN.node[96].xCoor = 49.2021
SN.node[96].yCoor = 44.5962
SN.node[96].zCoor = 0
SN.node[97].xCoor = 40.3097
SN.node[97].yCoor = 26.8511
SN.node[98].xCoor = 22.3963
SN.node[98].yCoor = 5.01134
SN.node[99].xCoor = 45.9741
SN.node[99].yCoor = 17.6156
SN.node[100].xCoor = 23.4625
SN.node[100].yCoor = 49.9424


#==========================================================================
#						Parâmetros ds Topologia da Rede
#==========================================================================


#==========================================================================
#						Configuracao 100 Nodos - Estática
#==========================================================================
[Config redeE100]

SN.numNodes = 101

#SN.node[*].startupRandomization = 0
#SN.node[*].startupOffset = 0
SN.node[*].ResourceManager.initialEnergy = 18720

SN.deployment = "[0]->center; [1..100]->uniform"

#==========================================================================
#						Configuracao 80 Nodos - Estática
#==========================================================================
[Config redeE80]

SN.numNodes = 81


SN.node[*].startupRandomization = 0
SN.node[*].startupOffset = 0
SN.node[*].ResourceManager.initialEnergy = 18720

SN.deployment = "[0]->center; [1..80]->uniform"
#==========================================================================
#						Configuracao 60 Nodos - Estática
#==========================================================================
[Config redeE60]

SN.numNodes = 61

SN.node[*].startupRandomization = 0
SN.node[*].startupOffset = 0
SN.node[*].ResourceManager.initialEnergy = 18720

SN.deployment = "[0]->center; [1..60]->uniform"
#==========================================================================
#						Configuracao 40 Nodos - Estática
#==========================================================================
[Config redeE40]

SN.numNodes = 41

SN.node[*].startupRandomization = 0
SN.node[*].startupOffset = 0
SN.node[*].ResourceManager.initialEnergy = 18720

SN.deployment = "[0]->center; [1..40]->uniform"
#==========================================================================
#						Configuracao 20 Nodos - Estática
#==========================================================================
[Config redeE20]
#seed-set = ${repetition}

SN.numNodes = 21

SN.node[*].startupRandomization = 0
SN.node[*].startupOffset = 0
SN.node[*].ResourceManager.initialEnergy = 18720

SN.deployment = "[0]->center; [1..20]->uniform"







#==========================================================================
#						Configuracao 100 Nodos - Dinâmica
#==========================================================================
[Config rede100]

SN.numNodes = 101

SN.node[*].startupRandomization = 0
SN.node[*].ResourceManager.initialEnergy = 18720
SN.node[0..50].startupOffset = 0
SN.node[51..55].startupOffset = 50
SN.node[56..60].startupOffset = 80
SN.node[61..65].startupOffset = 110
SN.node[66..70].startupOffset = 140
SN.node[71..75].startupOffset = 170
SN.node[76..80].startupOffset = 200
SN.node[81..85].startupOffset = 230
SN.node[86..90].startupOffset = 260
SN.node[91..95].startupOffset = 290
SN.node[96..100].startupOffset = 320



SN.node[30..33].pausar = true
SN.node[30..33].pausarNoTempo = 320
SN.node[30..33].retornarNoTempo = 370

SN.node[40..43].pausar = true
SN.node[40..43].pausarNoTempo = 330
SN.node[40..43].retornarNoTempo = 480

SN.node[50..53].pausar = true
SN.node[50..53].pausarNoTempo = 340
SN.node[50..53].retornarNoTempo = 390

SN.node[60..63].pausar = true
SN.node[60..63].pausarNoTempo = 350
SN.node[60..63].retornarNoTempo = 450

SN.node[70..73].pausar = true
SN.node[70..73].pausarNoTempo = 360
SN.node[70..73].retornarNoTempo = 450


SN.deployment = "[0]->center; [1..100]->uniform"

#==========================================================================
#						Configuracao 80 Nodos - Dinâmica
#==========================================================================
[Config rede80]

SN.numNodes = 81

SN.node[*].startupRandomization = 0
SN.node[*].ResourceManager.initialEnergy = 18720
SN.node[0..40].startupOffset = 0
SN.node[41..45].startupOffset = 50
SN.node[46..50].startupOffset = 80
SN.node[51..55].startupOffset = 110
SN.node[56..60].startupOffset = 140
SN.node[61..65].startupOffset = 170
SN.node[66..70].startupOffset = 200
SN.node[71..75].startupOffset = 230
SN.node[76..80].startupOffset = 260

SN.node[10..13].pausar = true
SN.node[10..13].pausarNoTempo = 320
SN.node[10..13].retornarNoTempo = 370

SN.node[20..23].pausar = true
SN.node[20..23].pausarNoTempo = 330
SN.node[20..23].retornarNoTempo = 380

SN.node[40..43].pausar = true
SN.node[40..43].pausarNoTempo = 340
SN.node[40..43].retornarNoTempo = 390

SN.node[50..53].pausar = true
SN.node[50..53].pausarNoTempo = 350
SN.node[50..53].retornarNoTempo = 400


SN.deployment = "[0]->center; [1..80]->uniform"

#==========================================================================
#						Configuracao 60 Nodos - Dinâmica
#==========================================================================
[Config rede60]

SN.numNodes = 61

SN.node[*].startupRandomization = 0
SN.node[*].ResourceManager.initialEnergy = 18720
SN.node[0..30].startupOffset = 0
SN.node[31..35].startupOffset = 50
SN.node[36..40].startupOffset = 80
SN.node[41..45].startupOffset = 110
SN.node[46..50].startupOffset = 140
SN.node[51..55].startupOffset = 170
SN.node[56..60].startupOffset = 200


SN.node[10..13].pausar = true
SN.node[10..13].pausarNoTempo = 320
SN.node[10..13].retornarNoTempo = 370

SN.node[20..23].pausar = true
SN.node[20..23].pausarNoTempo = 330
SN.node[20..23].retornarNoTempo = 380

SN.node[30..33].pausar = true
SN.node[30..33].pausarNoTempo = 340
SN.node[30..33].retornarNoTempo = 390



SN.deployment = "[0]->center; [1..60]->uniform"

#==========================================================================
#						Configuracao 40 Nodos - Dinâmica
#==========================================================================
[Config rede40]

SN.numNodes = 41

SN.node[*].startupRandomization = 0
SN.node[*].ResourceManager.initialEnergy = 18720
SN.node[0..20].startupOffset = 0
SN.node[21..25].startupOffset = 50
SN.node[26..30].startupOffset = 80
SN.node[31..35].startupOffset = 110
SN.node[36..40].startupOffset = 140


SN.node[10..13].pausar = true
SN.node[10..13].pausarNoTempo = 320
SN.node[10..13].retornarNoTempo = 370

SN.node[20..23].pausar = true
SN.node[20..23].pausarNoTempo = 330
SN.node[20..23].retornarNoTempo = 380




SN.deployment = "[0]->center; [1..40]->uniform"

#==========================================================================
#						Configuracao 20 Nodos - Dinâmica
#==========================================================================

[Config rede20]

SN.numNodes = 21

SN.node[*].startupRandomization = 0
SN.node[*].ResourceManager.initialEnergy = 18720
SN.node[0..10].startupOffset = 0
SN.node[11..15].startupOffset = 50
SN.node[16..20].startupOffset = 80


SN.node[7..10].pausar = true
SN.node[7..10].pausarNoTempo = 320 #70 # o correto é 320
SN.node[7..10].retornarNoTempo = 370 #100 # o correto é 370



SN.deployment = "[0]->center; [1..20]->uniform"

